<?xml version="1.0" encoding="UTF-8"?>

<!-- generated on 2023-04-14 00:21:17 by Eclipse SUMO netedit Version 1.16.0
-->

<routes xmlns:xsi="http://www.w3.org/2001/XMLSchema-instance" xsi:noNamespaceSchemaLocation="http://sumo.dlr.de/xsd/routes_file.xsd">
    <!-- Routes -->
    <route id="r_0" edges="E1 E2 E4 E5"/>
    <route id="r_1" edges="E0 E1 E2 E4 E5 E6"/>
    <!-- Vehicles, persons and containers (sorted by depart) -->
    <trip id="t_0" depart="0.00" from="E1" to="E6" via="E2 E4 E5"/>
    <trip id="t_1" depart="0.00" from="E1" to="E5" via="E2 E4"/>
</routes>
