<?xml version="1.0" encoding="UTF-8"?>

<!-- generated on 2023-04-15 18:09:04 by Eclipse SUMO netedit Version 1.16.0
<configuration xmlns:xsi="http://www.w3.org/2001/XMLSchema-instance" xsi:noNamespaceSchemaLocation="http://sumo.dlr.de/xsd/netconvertConfiguration.xsd">

    <input>
        <sumo-net-file value="/home/aahana/python/sumo stuff/file1.net.xml"/>
    </input>

    <output>
        <output-file value="/home/aahana/python/sumo stuff/file1.net.xml"/>
    </output>

    <processing>
        <geometry.min-radius.fix.railways value="false"/>
        <geometry.max-grade.fix value="false"/>
        <offset.disable-normalization value="true"/>
        <lefthand value="0"/>
    </processing>

    <junctions>
        <no-turnarounds value="true"/>
        <junctions.corner-detail value="5"/>
        <junctions.limit-turn-speed value="5.50"/>
        <rectangular-lane-cut value="0"/>
    </junctions>

    <pedestrian>
        <walkingareas value="0"/>
    </pedestrian>

</configuration>
-->

<net version="1.16" junctionCornerDetail="5" limitTurnSpeed="5.50" xmlns:xsi="http://www.w3.org/2001/XMLSchema-instance" xsi:noNamespaceSchemaLocation="http://sumo.dlr.de/xsd/net_file.xsd">

    <location netOffset="0.00,0.00" convBoundary="-13.79,7.73,289.85,66.55" origBoundary="-10000000000.00,-10000000000.00,10000000000.00,10000000000.00" projParameter="!"/>

    <edge id=":J1_0" function="internal">
        <lane id=":J1_0_0" index="0" speed="13.89" length="0.57" shape="49.52,59.86 49.69,59.87 49.81,59.86 49.93,59.84 50.09,59.79"/>
    </edge>
    <edge id=":J2_0" function="internal">
        <lane id=":J2_0_0" index="0" speed="13.89" length="0.30" shape="113.76,40.46 114.04,40.38"/>
    </edge>
    <edge id=":J3_0" function="internal">
        <lane id=":J3_0_0" index="0" speed="5.52" length="9.52" shape="143.99,32.31 141.54,34.01 140.77,35.61 141.70,37.13 144.32,38.56"/>
    </edge>
    <edge id=":J3_1" function="internal">
        <lane id=":J3_1_0" index="0" speed="13.89" length="15.58" shape="129.30,35.65 133.00,35.22 136.86,35.85 140.68,37.12 144.32,38.56"/>
    </edge>
    <edge id=":J5_0" function="internal">
        <lane id=":J5_0_0" index="0" speed="3.90" length="2.79" shape="207.16,63.74 207.91,63.92 208.52,63.80 208.98,63.39 209.29,62.68"/>
    </edge>
    <edge id=":J6_0" function="internal">
        <lane id=":J6_0_0" index="0" speed="3.93" length="3.45" shape="224.66,7.30 225.06,6.37 225.62,5.93 226.33,5.96 227.20,6.48"/>
    </edge>

    <edge id="E0" from="J0" to="J1" priority="-1">
        <lane id="E0_0" index="0" speed="13.89" length="63.34" shape="-13.69,55.87 49.52,59.86"/>
    </edge>
    <edge id="E1" from="J1" to="J2" priority="-1">
        <lane id="E1_0" index="0" speed="13.89" length="66.54" shape="50.09,59.79 113.76,40.46"/>
    </edge>
    <edge id="E2" from="J2" to="J3" priority="-1">
        <lane id="E2_0" index="0" speed="13.89" length="15.97" shape="114.04,40.38 129.30,35.65"/>
    </edge>
    <edge id="E3" from="J4" to="J3" priority="-1">
        <lane id="E3_0" index="0" speed="13.89" length="40.28" shape="179.61,13.50 143.99,32.31"/>
    </edge>
    <edge id="E4" from="J3" to="J5" priority="-1">
        <lane id="E4_0" index="0" speed="13.89" length="67.69" shape="144.32,38.56 207.16,63.74"/>
    </edge>
    <edge id="E5" from="J5" to="J6" priority="-1">
        <lane id="E5_0" index="0" speed="13.89" length="57.47" shape="209.29,62.68 224.66,7.30"/>
    </edge>
    <edge id="E6" from="J6" to="J7" priority="-1">
        <lane id="E6_0" index="0" speed="13.89" length="81.57" shape="227.20,6.48 290.85,57.49"/>
    </edge>

    <junction id="J0" type="dead_end" x="-13.79" y="57.47" incLanes="" intLanes="" shape="-13.79,57.47 -13.59,54.28"/>
    <junction id="J1" type="priority" x="50.00" y="61.49" incLanes="E0_0" intLanes=":J1_0_0" shape="50.55,61.32 49.62,58.26 49.42,61.45 49.85,61.47 50.00,61.46 50.14,61.44 50.32,61.39">
        <request index="0" response="0" foes="0" cont="0"/>
    </junction>
    <junction id="J2" type="priority" x="114.37" y="41.95" incLanes="E1_0" intLanes=":J2_0_0" shape="114.52,41.90 113.57,38.85 113.29,38.93 114.22,41.99">
        <request index="0" response="0" foes="0" cont="0"/>
    </junction>
    <junction id="J3" type="priority" x="133.59" y="35.99" incLanes="E3_0 E2_0" intLanes=":J3_0_0 :J3_1_0" shape="143.72,40.05 144.91,37.08 143.24,36.04 143.01,35.50 143.18,34.93 143.76,34.34 144.74,33.72 143.24,30.89 140.40,32.18 138.17,32.78 136.23,32.98 134.25,33.08 131.89,33.36 128.82,34.12 129.77,37.17 132.71,36.47 134.94,36.39 136.82,36.83 138.68,37.66 140.87,38.77">
        <request index="0" response="10" foes="10" cont="0"/>
        <request index="1" response="00" foes="01" cont="0"/>
    </junction>
    <junction id="J4" type="dead_end" x="178.86" y="12.09" incLanes="" intLanes="" shape="178.86,12.09 180.35,14.92"/>
    <junction id="J5" type="priority" x="209.88" y="66.55" incLanes="E4_0" intLanes=":J5_0_0" shape="210.84,63.11 207.75,62.25 206.56,65.22 208.51,65.58 209.29,65.36 209.94,64.87 210.45,64.12">
        <request index="0" response="0" foes="0" cont="0"/>
    </junction>
    <junction id="J6" type="priority" x="226.20" y="7.73" incLanes="E5_0" intLanes=":J6_0_0" shape="226.20,7.73 228.20,5.23 225.95,4.07 225.04,4.13 224.26,4.61 223.62,5.53 223.12,6.87">
        <request index="0" response="0" foes="0" cont="0"/>
    </junction>
    <junction id="J7" type="dead_end" x="289.85" y="58.74" incLanes="E6_0" intLanes="" shape="291.85,56.24 289.85,58.74"/>

    <connection from="E0" to="E1" fromLane="0" toLane="0" via=":J1_0_0" dir="s" state="M"/>
    <connection from="E1" to="E2" fromLane="0" toLane="0" via=":J2_0_0" dir="s" state="M"/>
    <connection from="E2" to="E4" fromLane="0" toLane="0" via=":J3_1_0" dir="s" state="M"/>
    <connection from="E3" to="E4" fromLane="0" toLane="0" via=":J3_0_0" dir="r" state="m"/>
    <connection from="E4" to="E5" fromLane="0" toLane="0" via=":J5_0_0" dir="r" state="M"/>
    <connection from="E5" to="E6" fromLane="0" toLane="0" via=":J6_0_0" dir="l" state="M"/>

    <connection from=":J1_0" to="E1" fromLane="0" toLane="0" dir="s" state="M"/>
    <connection from=":J2_0" to="E2" fromLane="0" toLane="0" dir="s" state="M"/>
    <connection from=":J3_0" to="E4" fromLane="0" toLane="0" dir="r" state="M"/>
    <connection from=":J3_1" to="E4" fromLane="0" toLane="0" dir="s" state="M"/>
    <connection from=":J5_0" to="E5" fromLane="0" toLane="0" dir="r" state="M"/>
    <connection from=":J6_0" to="E6" fromLane="0" toLane="0" dir="l" state="M"/>

</net>
