<?xml version="1.0" encoding="UTF-8"?>

<!-- generated on 2023-04-14 16:42:32 by Eclipse SUMO netedit Version 1.16.0
-->

<routes xmlns:xsi="http://www.w3.org/2001/XMLSchema-instance" xsi:noNamespaceSchemaLocation="http://sumo.dlr.de/xsd/routes_file.xsd">
    <!-- Routes -->
    <route id="r_0" edges="-25649885#2 -25649885#1 -25649885#0 -24730651#9 -24730651#8 -24730651#7 -24730651#6 -24730651#5 -24730651#4 -24730651#3 -24730651#2 -24730651#1 -24730651#0 24730647#3 24730647#4 24730647#0 24730647#1 24730644#0 24730644#1 24730644#2"/>
    <!-- Vehicles, persons and containers (sorted by depart) -->
    <trip id="t_0" depart="0.00" from="-25649885#2" to="24730644#2"/>
</routes>
